Circuit: * C:\Users\lucal\LE MIE COSE\miei progetti\roba elettronica\metal detector\simulazioni\metalDetector.asc

Direct Newton iteration for .op point succeeded.

Date: Thu Jul 03 22:39:35 2025
Total elapsed time: 0.146 seconds.

tnom = 27
temp = 27
method = modified trap
totiter = 12129
traniter = 12121
tranpoints = 3348
accept = 2773
rejected = 575
matrix size = 15
fillins = 0
solver = Normal
Matrix Compiler1: 398 bytes object code size  0.3/0.1/[0.1]
Matrix Compiler2: 861 bytes object code size  0.2/0.3/[0.1]

